<?xml version="1.0" encoding="UTF-8"?>

<!-- generated on 2025-11-16T20:22:33.016814-07:00 by Eclipse SUMO netedit 1.25.0
<neteditConfiguration xmlns:xsi="http://www.w3.org/2001/XMLSchema-instance" xsi:noNamespaceSchemaLocation="http://sumo.dlr.de/xsd/neteditConfiguration.xsd">

    <input>
        <sumo-net-file value="C:\TEST\Mi_red.net.xml"/>
    </input>

    <output>
        <output-file value="C:\TEST\Mi_red.net.xml"/>
    </output>

    <processing>
        <geometry.min-radius.fix.railways value="false"/>
        <geometry.avoid-overlap value="false"/>
        <geometry.max-grade.fix value="false"/>
        <offset.disable-normalization value="true"/>
        <lefthand value="0"/>
    </processing>

    <junctions>
        <no-turnarounds value="true"/>
        <junctions.corner-detail value="5"/>
        <junctions.limit-turn-speed value="5.50"/>
        <rectangular-lane-cut value="0"/>
    </junctions>

    <pedestrian>
        <walkingareas value="0"/>
    </pedestrian>

</neteditConfiguration>
-->

<net version="1.20" junctionCornerDetail="5" limitTurnSpeed="5.50" avoidOverlap="0" xmlns:xsi="http://www.w3.org/2001/XMLSchema-instance" xsi:noNamespaceSchemaLocation="http://sumo.dlr.de/xsd/net_file.xsd">

    <location netOffset="0.00,0.00" convBoundary="-100.00,-100.00,100.00,100.00" origBoundary="-10000000000.00,-10000000000.00,10000000000.00,10000000000.00" projParameter="!"/>

    <edge id=":J5_0" function="internal">
        <lane id=":J5_0_0" index="0" speed="6.51" length="9.03" shape="-8.00,13.60 -8.35,11.15 -9.40,9.40 -11.15,8.35 -13.60,8.00"/>
    </edge>
    <edge id=":J5_1" function="internal">
        <lane id=":J5_1_0" index="0" speed="13.89" length="27.20" shape="-8.00,13.60 -8.00,-13.60"/>
        <lane id=":J5_1_1" index="1" speed="13.89" length="27.20" shape="-4.80,13.60 -4.80,-13.60"/>
        <lane id=":J5_1_2" index="2" speed="13.89" length="27.20" shape="-1.60,13.60 -1.60,-13.60"/>
    </edge>
    <edge id=":J5_4" function="internal">
        <lane id=":J5_4_0" index="0" speed="10.36" length="5.01" shape="-1.60,13.60 -0.89,8.64"/>
    </edge>
    <edge id=":J5_20" function="internal">
        <lane id=":J5_20_0" index="0" speed="10.36" length="19.50" shape="-0.89,8.64 -0.65,6.95 2.20,2.20 6.95,-0.65 13.60,-1.60"/>
    </edge>
    <edge id=":J5_5" function="internal">
        <lane id=":J5_5_0" index="0" speed="6.51" length="9.03" shape="13.60,8.00 11.15,8.35 9.40,9.40 8.35,11.15 8.00,13.60"/>
    </edge>
    <edge id=":J5_6" function="internal">
        <lane id=":J5_6_0" index="0" speed="13.89" length="27.20" shape="13.60,8.00 -13.60,8.00"/>
        <lane id=":J5_6_1" index="1" speed="13.89" length="27.20" shape="13.60,4.80 -13.60,4.80"/>
        <lane id=":J5_6_2" index="2" speed="13.89" length="27.20" shape="13.60,1.60 -13.60,1.60"/>
    </edge>
    <edge id=":J5_9" function="internal">
        <lane id=":J5_9_0" index="0" speed="10.36" length="5.01" shape="13.60,1.60 8.64,0.89"/>
    </edge>
    <edge id=":J5_21" function="internal">
        <lane id=":J5_21_0" index="0" speed="10.36" length="19.50" shape="8.64,0.89 6.95,0.65 2.20,-2.20 -0.65,-6.95 -1.60,-13.60"/>
    </edge>
    <edge id=":J5_10" function="internal">
        <lane id=":J5_10_0" index="0" speed="6.51" length="9.03" shape="8.00,-13.60 8.35,-11.15 9.40,-9.40 11.15,-8.35 13.60,-8.00"/>
    </edge>
    <edge id=":J5_11" function="internal">
        <lane id=":J5_11_0" index="0" speed="13.89" length="27.20" shape="8.00,-13.60 8.00,13.60"/>
        <lane id=":J5_11_1" index="1" speed="13.89" length="27.20" shape="4.80,-13.60 4.80,13.60"/>
        <lane id=":J5_11_2" index="2" speed="13.89" length="27.20" shape="1.60,-13.60 1.60,13.60"/>
    </edge>
    <edge id=":J5_14" function="internal">
        <lane id=":J5_14_0" index="0" speed="10.36" length="5.01" shape="1.60,-13.60 0.89,-8.64"/>
    </edge>
    <edge id=":J5_22" function="internal">
        <lane id=":J5_22_0" index="0" speed="10.36" length="19.50" shape="0.89,-8.64 0.65,-6.95 -2.20,-2.20 -6.95,0.65 -13.60,1.60"/>
    </edge>
    <edge id=":J5_15" function="internal">
        <lane id=":J5_15_0" index="0" speed="6.51" length="9.03" shape="-13.60,-8.00 -11.15,-8.35 -9.40,-9.40 -8.35,-11.15 -8.00,-13.60"/>
    </edge>
    <edge id=":J5_16" function="internal">
        <lane id=":J5_16_0" index="0" speed="13.89" length="27.20" shape="-13.60,-8.00 13.60,-8.00"/>
        <lane id=":J5_16_1" index="1" speed="13.89" length="27.20" shape="-13.60,-4.80 13.60,-4.80"/>
        <lane id=":J5_16_2" index="2" speed="13.89" length="27.20" shape="-13.60,-1.60 13.60,-1.60"/>
    </edge>
    <edge id=":J5_19" function="internal">
        <lane id=":J5_19_0" index="0" speed="10.36" length="5.01" shape="-13.60,-1.60 -8.64,-0.89"/>
    </edge>
    <edge id=":J5_23" function="internal">
        <lane id=":J5_23_0" index="0" speed="10.36" length="19.50" shape="-8.64,-0.89 -6.95,-0.65 -2.20,2.20 0.65,6.95 1.60,13.60"/>
    </edge>

    <edge id="-E3" from="J5" to="J4" priority="-1">
        <lane id="-E3_0" index="0" speed="13.89" length="86.40" shape="-13.60,8.00 -100.00,8.00"/>
        <lane id="-E3_1" index="1" speed="13.89" length="86.40" shape="-13.60,4.80 -100.00,4.80"/>
        <lane id="-E3_2" index="2" speed="13.89" length="86.40" shape="-13.60,1.60 -100.00,1.60"/>
    </edge>
    <edge id="-E4" from="J6" to="J5" priority="-1">
        <lane id="-E4_0" index="0" speed="13.89" length="86.40" shape="-8.00,100.00 -8.00,13.60"/>
        <lane id="-E4_1" index="1" speed="13.89" length="86.40" shape="-4.80,100.00 -4.80,13.60"/>
        <lane id="-E4_2" index="2" speed="13.89" length="86.40" shape="-1.60,100.00 -1.60,13.60"/>
    </edge>
    <edge id="-E5" from="J5" to="J7" priority="-1">
        <lane id="-E5_0" index="0" speed="13.89" length="86.40" shape="13.60,-8.00 100.00,-8.00"/>
        <lane id="-E5_1" index="1" speed="13.89" length="86.40" shape="13.60,-4.80 100.00,-4.80"/>
        <lane id="-E5_2" index="2" speed="13.89" length="86.40" shape="13.60,-1.60 100.00,-1.60"/>
    </edge>
    <edge id="-E6.0" from="J5" to="J9" priority="-1">
        <lane id="-E6.0_0" index="0" speed="13.89" length="86.40" shape="-8.00,-13.60 -8.00,-100.00"/>
        <lane id="-E6.0_1" index="1" speed="13.89" length="86.40" shape="-4.80,-13.60 -4.80,-100.00"/>
        <lane id="-E6.0_2" index="2" speed="13.89" length="86.40" shape="-1.60,-13.60 -1.60,-100.00"/>
    </edge>
    <edge id="E3" from="J4" to="J5" priority="-1">
        <lane id="E3_0" index="0" speed="13.89" length="86.40" shape="-100.00,-8.00 -13.60,-8.00"/>
        <lane id="E3_1" index="1" speed="13.89" length="86.40" shape="-100.00,-4.80 -13.60,-4.80"/>
        <lane id="E3_2" index="2" speed="13.89" length="86.40" shape="-100.00,-1.60 -13.60,-1.60"/>
    </edge>
    <edge id="E4" from="J5" to="J6" priority="-1">
        <lane id="E4_0" index="0" speed="13.89" length="86.40" shape="8.00,13.60 8.00,100.00"/>
        <lane id="E4_1" index="1" speed="13.89" length="86.40" shape="4.80,13.60 4.80,100.00"/>
        <lane id="E4_2" index="2" speed="13.89" length="86.40" shape="1.60,13.60 1.60,100.00"/>
    </edge>
    <edge id="E5" from="J7" to="J5" priority="-1">
        <lane id="E5_0" index="0" speed="13.89" length="86.40" shape="100.00,8.00 13.60,8.00"/>
        <lane id="E5_1" index="1" speed="13.89" length="86.40" shape="100.00,4.80 13.60,4.80"/>
        <lane id="E5_2" index="2" speed="13.89" length="86.40" shape="100.00,1.60 13.60,1.60"/>
    </edge>
    <edge id="E6.0" from="J9" to="J5" priority="-1">
        <lane id="E6.0_0" index="0" speed="13.89" length="86.40" shape="8.00,-100.00 8.00,-13.60"/>
        <lane id="E6.0_1" index="1" speed="13.89" length="86.40" shape="4.80,-100.00 4.80,-13.60"/>
        <lane id="E6.0_2" index="2" speed="13.89" length="86.40" shape="1.60,-100.00 1.60,-13.60"/>
    </edge>

    <tlLogic id="J5" type="static" programID="0" offset="0">
        <phase duration="15" state="GGGGGrrrrrrrrrrrrrrr"/>
        <phase duration="30" state="GGGGgrrrrrGGGGgrrrrr"/>
        <phase duration="5"  state="GGGGyrrrrrGGGGgrrrrr"/>
        <phase duration="15" state="rrrrrrrrrrGGGGGrrrrr"/>
        <phase duration="3"  state="yyyyyrrrrryyyyyrrrrr"/>
        <phase duration="15" state="rrrrrGGGGGrrrrrrrrrr"/>
        <phase duration="30" state="rrrrrGGGGgrrrrrGGGGg"/>
        <phase duration="5"  state="rrrrrGGGGyrrrrrGGGGg"/>
        <phase duration="15" state="rrrrrrrrrrrrrrrGGGGG"/>
        <phase duration="3"  state="rrrrryyyyyrrrrryyyyy"/>
    </tlLogic>

    <junction id="J4" type="dead_end" x="-100.00" y="0.00" incLanes="-E3_0 -E3_1 -E3_2" intLanes="" shape="-100.00,0.00 -100.00,9.60 -100.00,0.00"/>
    <junction id="J5" type="traffic_light" x="0.00" y="0.00" incLanes="-E4_0 -E4_1 -E4_2 E5_0 E5_1 E5_2 E6.0_0 E6.0_1 E6.0_2 E3_0 E3_1 E3_2" intLanes=":J5_0_0 :J5_1_0 :J5_1_1 :J5_1_2 :J5_20_0 :J5_5_0 :J5_6_0 :J5_6_1 :J5_6_2 :J5_21_0 :J5_10_0 :J5_11_0 :J5_11_1 :J5_11_2 :J5_22_0 :J5_15_0 :J5_16_0 :J5_16_1 :J5_16_2 :J5_23_0" shape="-9.60,13.60 9.60,13.60 10.04,11.38 10.60,10.60 11.38,10.04 12.38,9.71 13.60,9.60 13.60,-9.60 11.38,-10.04 10.60,-10.60 10.04,-11.38 9.71,-12.38 9.60,-13.60 -9.60,-13.60 -10.04,-11.38 -10.60,-10.60 -11.38,-10.04 -12.38,-9.71 -13.60,-9.60 -13.60,9.60 -11.38,10.04 -10.60,10.60 -10.04,11.38 -9.71,12.38">
        <request index="0"  response="00000000000000000000" foes="00000000000111000000" cont="0"/>
        <request index="1"  response="10000000000000000000" foes="11111100001111000000" cont="0"/>
        <request index="2"  response="10000000000000000000" foes="11111100001111000000" cont="0"/>
        <request index="3"  response="10000000001000000000" foes="11111100001111000000" cont="0"/>
        <request index="4"  response="10000011101000000000" foes="11110011101111000000" cont="1"/>
        <request index="5"  response="00000011100000000000" foes="00000011100000000000" cont="0"/>
        <request index="6"  response="00000111100000011111" foes="10000111100000011111" cont="0"/>
        <request index="7"  response="00000111100000011111" foes="10000111100000011111" cont="0"/>
        <request index="8"  response="00000111100000011111" foes="10000111100000011111" cont="0"/>
        <request index="9"  response="01110111100000011110" foes="01110111100000011110" cont="1"/>
        <request index="10" response="00000000000000000000" foes="01110000000000000000" cont="0"/>
        <request index="11" response="00000000001000000000" foes="11110000001111110000" cont="0"/>
        <request index="12" response="00000000001000000000" foes="11110000001111110000" cont="0"/>
        <request index="13" response="10000000001000000000" foes="11110000001111110000" cont="0"/>
        <request index="14" response="10000000001000001110" foes="11110000001111001110" cont="1"/>
        <request index="15" response="00000000000000001110" foes="00000000000000001110" cont="0"/>
        <request index="16" response="00000111110000011110" foes="00000111111000011110" cont="0"/>
        <request index="17" response="00000111110000011110" foes="00000111111000011110" cont="0"/>
        <request index="18" response="00000111110000011110" foes="00000111111000011110" cont="0"/>
        <request index="19" response="00000111100111011110" foes="00000111100111011110" cont="1"/>
    </junction>
    <junction id="J6" type="dead_end" x="0.00" y="100.00" incLanes="E4_0 E4_1 E4_2" intLanes="" shape="0.00,100.00 9.60,100.00 0.00,100.00"/>
    <junction id="J7" type="dead_end" x="100.00" y="0.00" incLanes="-E5_0 -E5_1 -E5_2" intLanes="" shape="100.00,0.00 100.00,-9.60 100.00,0.00"/>
    <junction id="J8" type="dead_end" x="0.00" y="-100.00" incLanes="" intLanes="" shape="0.00,-100.00"/>
    <junction id="J9" type="dead_end" x="0.00" y="-100.00" incLanes="-E6.0_0 -E6.0_1 -E6.0_2" intLanes="" shape="0.00,-100.00 -9.60,-100.00 0.00,-100.00"/>

    <junction id=":J5_20_0" type="internal" x="-0.89" y="8.64" incLanes=":J5_4_0 E6.0_0 E6.0_1 E6.0_2" intLanes=":J5_6_0 :J5_6_1 :J5_6_2 :J5_9_0 :J5_10_0 :J5_11_0 :J5_11_1 :J5_11_2 :J5_16_0 :J5_16_1 :J5_16_2 :J5_19_0"/>
    <junction id=":J5_21_0" type="internal" x="8.64" y="0.89" incLanes=":J5_9_0 E3_0 E3_1 E3_2" intLanes=":J5_1_0 :J5_1_1 :J5_1_2 :J5_4_0 :J5_11_0 :J5_11_1 :J5_11_2 :J5_14_0 :J5_15_0 :J5_16_0 :J5_16_1 :J5_16_2"/>
    <junction id=":J5_22_0" type="internal" x="0.89" y="-8.64" incLanes=":J5_14_0 -E4_0 -E4_1 -E4_2" intLanes=":J5_0_0 :J5_1_0 :J5_1_1 :J5_1_2 :J5_6_0 :J5_6_1 :J5_6_2 :J5_9_0 :J5_16_0 :J5_16_1 :J5_16_2 :J5_19_0"/>
    <junction id=":J5_23_0" type="internal" x="-8.64" y="-0.89" incLanes=":J5_19_0 E5_0 E5_1 E5_2" intLanes=":J5_1_0 :J5_1_1 :J5_1_2 :J5_4_0 :J5_5_0 :J5_6_0 :J5_6_1 :J5_6_2 :J5_11_0 :J5_11_1 :J5_11_2 :J5_14_0"/>

    <connection from="-E4" to="-E3" fromLane="0" toLane="0" via=":J5_0_0" tl="J5" linkIndex="0" dir="r" state="O"/>
    <connection from="-E4" to="-E6.0" fromLane="0" toLane="0" via=":J5_1_0" tl="J5" linkIndex="1" dir="s" state="O"/>
    <connection from="-E4" to="-E6.0" fromLane="1" toLane="1" via=":J5_1_1" tl="J5" linkIndex="2" dir="s" state="O"/>
    <connection from="-E4" to="-E6.0" fromLane="2" toLane="2" via=":J5_1_2" tl="J5" linkIndex="3" dir="s" state="O"/>
    <connection from="-E4" to="-E5" fromLane="2" toLane="2" via=":J5_4_0" tl="J5" linkIndex="4" dir="l" state="o"/>
    <connection from="E3" to="-E6.0" fromLane="0" toLane="0" via=":J5_15_0" tl="J5" linkIndex="15" dir="r" state="o"/>
    <connection from="E3" to="-E5" fromLane="0" toLane="0" via=":J5_16_0" tl="J5" linkIndex="16" dir="s" state="o"/>
    <connection from="E3" to="-E5" fromLane="1" toLane="1" via=":J5_16_1" tl="J5" linkIndex="17" dir="s" state="o"/>
    <connection from="E3" to="-E5" fromLane="2" toLane="2" via=":J5_16_2" tl="J5" linkIndex="18" dir="s" state="o"/>
    <connection from="E3" to="E4" fromLane="2" toLane="2" via=":J5_19_0" tl="J5" linkIndex="19" dir="l" state="o"/>
    <connection from="E5" to="E4" fromLane="0" toLane="0" via=":J5_5_0" tl="J5" linkIndex="5" dir="r" state="o"/>
    <connection from="E5" to="-E3" fromLane="0" toLane="0" via=":J5_6_0" tl="J5" linkIndex="6" dir="s" state="o"/>
    <connection from="E5" to="-E3" fromLane="1" toLane="1" via=":J5_6_1" tl="J5" linkIndex="7" dir="s" state="o"/>
    <connection from="E5" to="-E3" fromLane="2" toLane="2" via=":J5_6_2" tl="J5" linkIndex="8" dir="s" state="o"/>
    <connection from="E5" to="-E6.0" fromLane="2" toLane="2" via=":J5_9_0" tl="J5" linkIndex="9" dir="l" state="o"/>
    <connection from="E6.0" to="-E5" fromLane="0" toLane="0" via=":J5_10_0" tl="J5" linkIndex="10" dir="r" state="O"/>
    <connection from="E6.0" to="E4" fromLane="0" toLane="0" via=":J5_11_0" tl="J5" linkIndex="11" dir="s" state="O"/>
    <connection from="E6.0" to="E4" fromLane="1" toLane="1" via=":J5_11_1" tl="J5" linkIndex="12" dir="s" state="O"/>
    <connection from="E6.0" to="E4" fromLane="2" toLane="2" via=":J5_11_2" tl="J5" linkIndex="13" dir="s" state="O"/>
    <connection from="E6.0" to="-E3" fromLane="2" toLane="2" via=":J5_14_0" tl="J5" linkIndex="14" dir="l" state="o"/>

    <connection from=":J5_0" to="-E3" fromLane="0" toLane="0" dir="r" state="M"/>
    <connection from=":J5_1" to="-E6.0" fromLane="0" toLane="0" dir="s" state="M"/>
    <connection from=":J5_1" to="-E6.0" fromLane="1" toLane="1" dir="s" state="M"/>
    <connection from=":J5_1" to="-E6.0" fromLane="2" toLane="2" dir="s" state="M"/>
    <connection from=":J5_4" to="-E5" fromLane="0" toLane="2" via=":J5_20_0" dir="l" state="m"/>
    <connection from=":J5_20" to="-E5" fromLane="0" toLane="2" dir="l" state="M"/>
    <connection from=":J5_5" to="E4" fromLane="0" toLane="0" dir="r" state="M"/>
    <connection from=":J5_6" to="-E3" fromLane="0" toLane="0" dir="s" state="M"/>
    <connection from=":J5_6" to="-E3" fromLane="1" toLane="1" dir="s" state="M"/>
    <connection from=":J5_6" to="-E3" fromLane="2" toLane="2" dir="s" state="M"/>
    <connection from=":J5_9" to="-E6.0" fromLane="0" toLane="2" via=":J5_21_0" dir="l" state="m"/>
    <connection from=":J5_21" to="-E6.0" fromLane="0" toLane="2" dir="l" state="M"/>
    <connection from=":J5_10" to="-E5" fromLane="0" toLane="0" dir="r" state="M"/>
    <connection from=":J5_11" to="E4" fromLane="0" toLane="0" dir="s" state="M"/>
    <connection from=":J5_11" to="E4" fromLane="1" toLane="1" dir="s" state="M"/>
    <connection from=":J5_11" to="E4" fromLane="2" toLane="2" dir="s" state="M"/>
    <connection from=":J5_14" to="-E3" fromLane="0" toLane="2" via=":J5_22_0" dir="l" state="m"/>
    <connection from=":J5_22" to="-E3" fromLane="0" toLane="2" dir="l" state="M"/>
    <connection from=":J5_15" to="-E6.0" fromLane="0" toLane="0" dir="r" state="M"/>
    <connection from=":J5_16" to="-E5" fromLane="0" toLane="0" dir="s" state="M"/>
    <connection from=":J5_16" to="-E5" fromLane="1" toLane="1" dir="s" state="M"/>
    <connection from=":J5_16" to="-E5" fromLane="2" toLane="2" dir="s" state="M"/>
    <connection from=":J5_19" to="E4" fromLane="0" toLane="2" via=":J5_23_0" dir="l" state="m"/>
    <connection from=":J5_23" to="E4" fromLane="0" toLane="2" dir="l" state="M"/>

</net>
